101
2
345
7
new line.
101
7
hello world
23
new line.


